Version 4
SHEET 1 1064 680
WIRE 64 -96 64 -192
WIRE 96 -96 64 -96
WIRE 192 -96 160 -96
WIRE 240 -96 240 -112
WIRE 240 -96 192 -96
WIRE 416 -96 416 -192
WIRE 448 -96 416 -96
WIRE 544 -96 512 -96
WIRE 592 -96 592 -112
WIRE 592 -96 544 -96
WIRE 768 -96 768 -192
WIRE 800 -96 768 -96
WIRE 896 -96 864 -96
WIRE 944 -96 944 -112
WIRE 944 -96 896 -96
WIRE 96 -64 64 -64
WIRE 240 -64 160 -64
WIRE 448 -64 416 -64
WIRE 592 -64 512 -64
WIRE 800 -64 768 -64
WIRE 944 -64 864 -64
WIRE 64 -48 64 -64
WIRE 240 -48 240 -64
WIRE 416 -48 416 -64
WIRE 592 -48 592 -64
WIRE 768 -48 768 -64
WIRE 944 -48 944 -64
WIRE 64 0 64 -48
WIRE 416 0 416 -48
WIRE 768 0 768 -48
WIRE 64 112 64 80
WIRE 416 112 416 80
WIRE 768 112 768 80
WIRE 64 128 64 112
WIRE 416 128 416 112
WIRE 768 128 768 112
WIRE 64 256 64 224
WIRE 416 256 416 224
WIRE 768 256 768 224
FLAG 64 256 0
FLAG 16 208 3v3
FLAG 64 -192 5v
FLAG -128 256 0
FLAG -128 176 3v3
FLAG 64 -48 Vk
FLAG 64 112 Vd
FLAG -240 256 0
FLAG -240 176 12v
FLAG 240 -48 0
FLAG 240 -192 5v
FLAG 192 -96 Vc
FLAG 416 256 0
FLAG 368 208 3v3
FLAG 416 -192 5v
FLAG 416 -48 Vk1
FLAG 416 112 Vd1
FLAG 592 -48 0
FLAG 592 -192 5v
FLAG 544 -96 Vc1
FLAG 768 256 0
FLAG 720 208 3v3
FLAG 768 -192 5v
FLAG 768 -48 Vk2
FLAG 768 112 Vd2
FLAG 944 -48 0
FLAG 944 -192 5v
FLAG 896 -96 Vc2
FLAG -336 256 0
FLAG -336 176 5v
SYMBOL res 48 -16 R0
SYMATTR InstName R1
SYMATTR Value 380
SYMBOL voltage -128 160 R0
WINDOW 123 0 0 Left 0
WINDOW 39 0 0 Left 0
SYMATTR InstName V1
SYMATTR Value 3.3
SYMBOL voltage -240 160 R0
WINDOW 123 0 0 Left 0
WINDOW 39 0 0 Left 0
SYMATTR InstName V2
SYMATTR Value 12
SYMBOL nmos 16 128 R0
SYMATTR InstName M1
SYMATTR Value BSS138/MOD
SYMATTR Prefix X
SYMBOL res 224 -208 R0
SYMATTR InstName R2
SYMATTR Value 4k7
SYMBOL res 400 -16 R0
SYMATTR InstName R3
SYMATTR Value 330
SYMBOL nmos 368 128 R0
SYMATTR InstName M2
SYMATTR Value BSS138/MOD
SYMATTR Prefix X
SYMBOL res 576 -208 R0
SYMATTR InstName R4
SYMATTR Value 4k7
SYMBOL res 752 -16 R0
SYMATTR InstName R5
SYMATTR Value 470
SYMBOL nmos 720 128 R0
SYMATTR InstName M3
SYMATTR Value BSS138/MOD
SYMATTR Prefix X
SYMBOL res 928 -208 R0
SYMATTR InstName R6
SYMATTR Value 4k7
SYMBOL voltage -336 160 R0
WINDOW 123 0 0 Left 0
WINDOW 39 0 0 Left 0
SYMATTR InstName V3
SYMATTR Value 5
SYMBOL SFH6156 128 -80 R0
WINDOW 39 0 64 Invisible 2
SYMATTR InstName U1
SYMATTR Value BJT_10mA
SYMBOL SFH6156 480 -80 R0
WINDOW 39 0 64 Invisible 2
SYMATTR InstName U2
SYMATTR Value BJT_10mA
SYMBOL SFH6156 832 -80 R0
WINDOW 39 0 64 Invisible 2
SYMATTR InstName U3
SYMATTR Value BJT_10mA
TEXT -240 360 Left 2 !.include BSS138.lib
TEXT -240 424 Left 2 !.dc V1 3 3.3 50m
TEXT -240 392 Left 2 !.include SFH6156.lib
